data_image0
_cell_length_a       5.1364
_cell_length_b       3.39827
_cell_length_c       4.02375
_cell_angle_alpha    90
_cell_angle_beta     90
_cell_angle_gamma    90

_symmetry_space_group_name_H-M    "P 1"
_symmetry_int_tables_number       1

loop_
  _symmetry_equiv_pos_as_xyz
  'x, y, z'

loop_
  _atom_site_label
  _atom_site_occupancy
  _atom_site_fract_x
  _atom_site_fract_y
  _atom_site_fract_z
  _atom_site_thermal_displace_type
  _atom_site_B_iso_or_equiv
  _atom_site_type_symbol
  La1      1.0000 0.25000  0.00000  0.34152  Biso   1.000  La
  La2      1.0000 0.75000  0.00000  0.65848  Biso   1.000  La
  C1       1.0000 0.10799  0.50000  0.87381  Biso   1.000  C
  C2       1.0000 0.60799  0.50000  0.12619  Biso   1.000  C
  C3       1.0000 0.89201  0.50000  0.12619  Biso   1.000  C
  C4       1.0000 0.39201  0.50000  0.87381  Biso   1.000  C
