data_image0
_cell_length_a       3.81922
_cell_length_b       12.4142
_cell_length_c       6.62478
_cell_angle_alpha    90
_cell_angle_beta     90
_cell_angle_gamma    90

_symmetry_space_group_name_H-M    "P 1"
_symmetry_int_tables_number       1

loop_
  _symmetry_equiv_pos_as_xyz
  'x, y, z'

loop_
  _atom_site_label
  _atom_site_occupancy
  _atom_site_fract_x
  _atom_site_fract_y
  _atom_site_fract_z
  _atom_site_thermal_displace_type
  _atom_site_B_iso_or_equiv
  _atom_site_type_symbol
  La1      1.0000 0.00000  0.27910  0.70668  Biso   1.000  La
  La2      1.0000 0.50000  0.22090  0.20668  Biso   1.000  La
  La3      1.0000 0.50000  0.50691  0.69863  Biso   1.000  La
  La4      1.0000 0.50000  0.49309  0.19863  Biso   1.000  La
  C1       1.0000 0.00000  0.35835  0.08844  Biso   1.000  C
  C2       1.0000 0.50000  0.06046  0.96333  Biso   1.000  C
  C3       1.0000 0.00000  0.44224  0.93673  Biso   1.000  C
  C4       1.0000 0.00000  0.43954  0.46333  Biso   1.000  C
  C5       1.0000 0.50000  0.14165  0.58844  Biso   1.000  C
  C6       1.0000 0.50000  0.05776  0.43673  Biso   1.000  C
  C7       1.0000 0.50000  0.14235  0.80917  Biso   1.000  C
  C8       1.0000 0.00000  0.35765  0.30917  Biso   1.000  C
  La5      1.0000 0.50000  0.77910  0.70668  Biso   1.000  La
  La6      1.0000 0.00000  0.72090  0.20668  Biso   1.000  La
  La7      1.0000 0.00000  0.00691  0.69863  Biso   1.000  La
  La8      1.0000 0.00000  0.99309  0.19863  Biso   1.000  La
  C9       1.0000 0.50000  0.85835  0.08844  Biso   1.000  C
  C10      1.0000 0.00000  0.56046  0.96333  Biso   1.000  C
  C11      1.0000 0.50000  0.94224  0.93673  Biso   1.000  C
  C12      1.0000 0.50000  0.93954  0.46333  Biso   1.000  C
  C13      1.0000 0.00000  0.64165  0.58844  Biso   1.000  C
  C14      1.0000 0.00000  0.55776  0.43673  Biso   1.000  C
  C15      1.0000 0.00000  0.64235  0.80917  Biso   1.000  C
  C16      1.0000 0.50000  0.85765  0.30917  Biso   1.000  C
