data_image0
_cell_length_a       7.04552
_cell_length_b       4.78814
_cell_length_c       4.66099
_cell_angle_alpha    90
_cell_angle_beta     90
_cell_angle_gamma    90

_symmetry_space_group_name_H-M    "P 1"
_symmetry_int_tables_number       1

loop_
  _symmetry_equiv_pos_as_xyz
  'x, y, z'

loop_
  _atom_site_label
  _atom_site_occupancy
  _atom_site_fract_x
  _atom_site_fract_y
  _atom_site_fract_z
  _atom_site_thermal_displace_type
  _atom_site_B_iso_or_equiv
  _atom_site_type_symbol
  La1      1.0000 0.17881  0.25000  0.09148  Biso   1.000  La
  La2      1.0000 0.82119  0.75000  0.90852  Biso   1.000  La
  La3      1.0000 0.67881  0.25000  0.40852  Biso   1.000  La
  La4      1.0000 0.32119  0.75000  0.59148  Biso   1.000  La
  C1       1.0000 0.46933  0.90036  0.11009  Biso   1.000  C
  C2       1.0000 0.53067  0.40036  0.88991  Biso   1.000  C
  C3       1.0000 0.96933  0.59964  0.38991  Biso   1.000  C
  C4       1.0000 0.03067  0.09964  0.61009  Biso   1.000  C
  C5       1.0000 0.46933  0.59964  0.11009  Biso   1.000  C
  C6       1.0000 0.53067  0.09964  0.88991  Biso   1.000  C
  C7       1.0000 0.96933  0.90036  0.38991  Biso   1.000  C
  C8       1.0000 0.03067  0.40036  0.61009  Biso   1.000  C
