data_image0
_cell_length_a       5.15887
_cell_length_b       5.96786
_cell_length_c       7.35323
_cell_angle_alpha    90
_cell_angle_beta     132.449
_cell_angle_gamma    90

_symmetry_space_group_name_H-M    "P 1"
_symmetry_int_tables_number       1

loop_
  _symmetry_equiv_pos_as_xyz
  'x, y, z'

loop_
  _atom_site_label
  _atom_site_occupancy
  _atom_site_fract_x
  _atom_site_fract_y
  _atom_site_fract_z
  _atom_site_thermal_displace_type
  _atom_site_B_iso_or_equiv
  _atom_site_type_symbol
  La1      1.0000 0.28386  0.18702  0.29763  Biso   1.000  La
  La2      1.0000 0.71614  0.81298  0.70237  Biso   1.000  La
  La3      1.0000 0.71614  0.68702  0.20237  Biso   1.000  La
  La4      1.0000 0.28386  0.31298  0.79763  Biso   1.000  La
  C1       1.0000 0.78048  0.27592  0.29530  Biso   1.000  C
  C2       1.0000 0.10846  0.92679  0.59115  Biso   1.000  C
  C3       1.0000 0.78048  0.22408  0.79530  Biso   1.000  C
  C4       1.0000 0.21952  0.72408  0.70470  Biso   1.000  C
  C5       1.0000 0.10846  0.57321  0.09115  Biso   1.000  C
  C6       1.0000 0.89154  0.42679  0.90885  Biso   1.000  C
  C7       1.0000 0.21952  0.77592  0.20470  Biso   1.000  C
  C8       1.0000 0.89154  0.07321  0.40885  Biso   1.000  C
