data_image0
_cell_length_a       4.29629
_cell_length_b       5.94302
_cell_length_c       5.87099
_cell_angle_alpha    90
_cell_angle_beta     97.9024
_cell_angle_gamma    90

_symmetry_space_group_name_H-M    "P 1"
_symmetry_int_tables_number       1

loop_
  _symmetry_equiv_pos_as_xyz
  'x, y, z'

loop_
  _atom_site_label
  _atom_site_occupancy
  _atom_site_fract_x
  _atom_site_fract_y
  _atom_site_fract_z
  _atom_site_thermal_displace_type
  _atom_site_B_iso_or_equiv
  _atom_site_type_symbol
  La1      1.0000 0.19963  0.25000  0.03154  Biso   1.000  La
  La2      1.0000 0.80037  0.75000  0.96846  Biso   1.000  La
  La3      1.0000 0.44871  0.75000  0.39587  Biso   1.000  La
  La4      1.0000 0.55129  0.25000  0.60413  Biso   1.000  La
  C1       1.0000 0.72786  0.12445  0.23152  Biso   1.000  C
  C2       1.0000 0.27214  0.62445  0.76848  Biso   1.000  C
  C3       1.0000 0.27214  0.87555  0.76848  Biso   1.000  C
  C4       1.0000 0.72786  0.37555  0.23152  Biso   1.000  C
  C5       1.0000 0.97612  0.48768  0.37621  Biso   1.000  C
  C6       1.0000 0.02388  0.98768  0.62379  Biso   1.000  C
  C7       1.0000 0.02388  0.51232  0.62379  Biso   1.000  C
  C8       1.0000 0.97612  0.01232  0.37621  Biso   1.000  C
