data_image0
_cell_length_a       5.19912
_cell_length_b       5.27441
_cell_length_c       5.88157
_cell_angle_alpha    87.7367
_cell_angle_beta     74.3103
_cell_angle_gamma    82.8661

_symmetry_space_group_name_H-M    "P 1"
_symmetry_int_tables_number       1

loop_
  _symmetry_equiv_pos_as_xyz
  'x, y, z'

loop_
  _atom_site_label
  _atom_site_occupancy
  _atom_site_fract_x
  _atom_site_fract_y
  _atom_site_fract_z
  _atom_site_thermal_displace_type
  _atom_site_B_iso_or_equiv
  _atom_site_type_symbol
  La1      1.0000 0.46144  0.16901  0.16643  Biso   1.000  La
  La2      1.0000 0.98848  0.62812  0.00759  Biso   1.000  La
  La3      1.0000 0.14969  0.03658  0.69813  Biso   1.000  La
  La4      1.0000 0.68217  0.50757  0.53561  Biso   1.000  La
  C1       1.0000 0.66690  0.91013  0.78622  Biso   1.000  C
  C2       1.0000 0.47015  0.75371  0.92623  Biso   1.000  C
  C3       1.0000 0.45489  0.67627  0.16822  Biso   1.000  C
  C4       1.0000 0.67982  0.00308  0.54887  Biso   1.000  C
  C5       1.0000 0.17945  0.49950  0.56959  Biso   1.000  C
  C6       1.0000 0.96158  0.16190  0.14078  Biso   1.000  C
  C7       1.0000 0.24327  0.62819  0.35998  Biso   1.000  C
  C8       1.0000 0.88848  0.03526  0.35069  Biso   1.000  C
