data_image0
_cell_length_a       5.19675
_cell_length_b       5.20778
_cell_length_c       6.14096
_cell_angle_alpha    70.3585
_cell_angle_beta     88.2336
_cell_angle_gamma    87.1011

_symmetry_space_group_name_H-M    "P 1"
_symmetry_int_tables_number       1

loop_
  _symmetry_equiv_pos_as_xyz
  'x, y, z'

loop_
  _atom_site_label
  _atom_site_occupancy
  _atom_site_fract_x
  _atom_site_fract_y
  _atom_site_fract_z
  _atom_site_thermal_displace_type
  _atom_site_B_iso_or_equiv
  _atom_site_type_symbol
  La1      1.0000 0.56001  0.56024  0.61566  Biso   1.000  La
  La2      1.0000 0.09123  0.06635  0.63837  Biso   1.000  La
  La3      1.0000 0.40480  0.25342  0.13165  Biso   1.000  La
  La4      1.0000 0.91132  0.73063  0.14275  Biso   1.000  La
  C1       1.0000 0.40345  0.71600  0.21270  Biso   1.000  C
  C2       1.0000 0.76332  0.01060  0.38854  Biso   1.000  C
  C3       1.0000 0.42937  0.82122  0.97714  Biso   1.000  C
  C4       1.0000 0.58137  0.07867  0.55102  Biso   1.000  C
  C5       1.0000 0.05672  0.48736  0.79124  Biso   1.000  C
  C6       1.0000 0.90899  0.20853  0.21542  Biso   1.000  C
  C7       1.0000 0.92173  0.31479  0.97326  Biso   1.000  C
  C8       1.0000 0.59253  0.96166  0.79581  Biso   1.000  C
