data_image0
_cell_length_a       3.75479
_cell_length_b       6.177
_cell_length_c       7.32598
_cell_angle_alpha    73.2561
_cell_angle_beta     89.8223
_cell_angle_gamma    83.8542

_symmetry_space_group_name_H-M    "P 1"
_symmetry_int_tables_number       1

loop_
  _symmetry_equiv_pos_as_xyz
  'x, y, z'

loop_
  _atom_site_label
  _atom_site_occupancy
  _atom_site_fract_x
  _atom_site_fract_y
  _atom_site_fract_z
  _atom_site_thermal_displace_type
  _atom_site_B_iso_or_equiv
  _atom_site_type_symbol
  La1      1.0000 0.53296  0.71696  0.80562  Biso   1.000  La
  La2      1.0000 0.95603  0.18282  0.44740  Biso   1.000  La
  La3      1.0000 0.96050  0.17789  0.94866  Biso   1.000  La
  La4      1.0000 0.52490  0.73081  0.31852  Biso   1.000  La
  C1       1.0000 0.43825  0.12990  0.20472  Biso   1.000  C
  C2       1.0000 0.74527  0.48308  0.12332  Biso   1.000  C
  C3       1.0000 0.38285  0.35493  0.65697  Biso   1.000  C
  C4       1.0000 0.08841  0.54877  0.10036  Biso   1.000  C
  C5       1.0000 0.12033  0.53198  0.61150  Biso   1.000  C
  C6       1.0000 0.47212  0.12308  0.71539  Biso   1.000  C
  C7       1.0000 0.01927  0.76067  0.55231  Biso   1.000  C
  C8       1.0000 0.42434  0.37782  0.14630  Biso   1.000  C
