data_image0
_cell_length_a       5.23126
_cell_length_b       5.23742
_cell_length_c       6.19852
_cell_angle_alpha    105.44
_cell_angle_beta     93.3448
_cell_angle_gamma    90.5566

_symmetry_space_group_name_H-M    "P 1"
_symmetry_int_tables_number       1

loop_
  _symmetry_equiv_pos_as_xyz
  'x, y, z'

loop_
  _atom_site_label
  _atom_site_occupancy
  _atom_site_fract_x
  _atom_site_fract_y
  _atom_site_fract_z
  _atom_site_thermal_displace_type
  _atom_site_B_iso_or_equiv
  _atom_site_type_symbol
  La1      1.0000 0.49011  0.67625  0.27363  Biso   1.000  La
  La2      1.0000 0.01583  0.81931  0.72847  Biso   1.000  La
  La3      1.0000 0.98417  0.18069  0.27153  Biso   1.000  La
  La4      1.0000 0.50989  0.32375  0.72637  Biso   1.000  La
  C1       1.0000 0.98715  0.58988  0.09648  Biso   1.000  C
  C2       1.0000 0.52051  0.90638  0.90544  Biso   1.000  C
  C3       1.0000 0.48494  0.19705  0.32076  Biso   1.000  C
  C4       1.0000 0.00613  0.29777  0.67932  Biso   1.000  C
  C5       1.0000 0.99387  0.70223  0.32068  Biso   1.000  C
  C6       1.0000 0.47949  0.09362  0.09456  Biso   1.000  C
  C7       1.0000 0.51506  0.80295  0.67924  Biso   1.000  C
  C8       1.0000 0.01285  0.41012  0.90352  Biso   1.000  C
