data_image0
_cell_length_a       4.20391
_cell_length_b       5.41194
_cell_length_c       7.29944
_cell_angle_alpha    72.0755
_cell_angle_beta     89.6819
_cell_angle_gamma    76.56

_symmetry_space_group_name_H-M    "P 1"
_symmetry_int_tables_number       1

loop_
  _symmetry_equiv_pos_as_xyz
  'x, y, z'

loop_
  _atom_site_label
  _atom_site_occupancy
  _atom_site_fract_x
  _atom_site_fract_y
  _atom_site_fract_z
  _atom_site_thermal_displace_type
  _atom_site_B_iso_or_equiv
  _atom_site_type_symbol
  La1      1.0000 0.28554  0.67474  0.11117  Biso   1.000  La
  La2      1.0000 0.75941  0.89786  0.37119  Biso   1.000  La
  La3      1.0000 0.71446  0.32526  0.88883  Biso   1.000  La
  La4      1.0000 0.24059  0.10214  0.62881  Biso   1.000  La
  C1       1.0000 0.93921  0.74130  0.74717  Biso   1.000  C
  C2       1.0000 0.17280  0.57046  0.68243  Biso   1.000  C
  C3       1.0000 0.75675  0.83268  0.87663  Biso   1.000  C
  C4       1.0000 0.06079  0.25870  0.25283  Biso   1.000  C
  C5       1.0000 0.36481  0.60553  0.51495  Biso   1.000  C
  C6       1.0000 0.63519  0.39447  0.48505  Biso   1.000  C
  C7       1.0000 0.82720  0.42954  0.31757  Biso   1.000  C
  C8       1.0000 0.24325  0.16732  0.12337  Biso   1.000  C
