data_image0
_cell_length_a       3.69613
_cell_length_b       6.24911
_cell_length_c       7.09203
_cell_angle_alpha    90
_cell_angle_beta     91.1323
_cell_angle_gamma    90

_symmetry_space_group_name_H-M    "P 1"
_symmetry_int_tables_number       1

loop_
  _symmetry_equiv_pos_as_xyz
  'x, y, z'

loop_
  _atom_site_label
  _atom_site_occupancy
  _atom_site_fract_x
  _atom_site_fract_y
  _atom_site_fract_z
  _atom_site_thermal_displace_type
  _atom_site_B_iso_or_equiv
  _atom_site_type_symbol
  La1      1.0000 0.78500  0.34675  0.67985  Biso   1.000  La
  La2      1.0000 0.21500  0.65325  0.32015  Biso   1.000  La
  La3      1.0000 0.78500  0.15325  0.17985  Biso   1.000  La
  La4      1.0000 0.21500  0.84675  0.82015  Biso   1.000  La
  C1       1.0000 0.62336  0.57544  0.02149  Biso   1.000  C
  C2       1.0000 0.27984  0.22125  0.92280  Biso   1.000  C
  C3       1.0000 0.37664  0.42456  0.97851  Biso   1.000  C
  C4       1.0000 0.72016  0.77875  0.07720  Biso   1.000  C
  C5       1.0000 0.27984  0.27875  0.42280  Biso   1.000  C
  C6       1.0000 0.37664  0.07544  0.47851  Biso   1.000  C
  C7       1.0000 0.62336  0.92456  0.52149  Biso   1.000  C
  C8       1.0000 0.72016  0.72125  0.57720  Biso   1.000  C
