data_image0
_cell_length_a       6.64186
_cell_length_b       6.64186
_cell_length_c       3.80307
_cell_angle_alpha    90
_cell_angle_beta     90
_cell_angle_gamma    120

_symmetry_space_group_name_H-M    "P 1"
_symmetry_int_tables_number       1

loop_
  _symmetry_equiv_pos_as_xyz
  'x, y, z'

loop_
  _atom_site_label
  _atom_site_occupancy
  _atom_site_fract_x
  _atom_site_fract_y
  _atom_site_fract_z
  _atom_site_thermal_displace_type
  _atom_site_B_iso_or_equiv
  _atom_site_type_symbol
  La1      1.0000 0.60070  0.00000  0.50777  Biso   1.000  La
  La2      1.0000 0.00000  0.60070  0.50777  Biso   1.000  La
  La3      1.0000 0.39930  0.39930  0.50777  Biso   1.000  La
  La4      1.0000 0.00000  0.00000  0.10729  Biso   1.000  La
  C1       1.0000 0.29468  0.87003  0.00264  Biso   1.000  C
  C2       1.0000 0.12997  0.42465  0.00264  Biso   1.000  C
  C3       1.0000 0.57535  0.70532  0.00264  Biso   1.000  C
  C4       1.0000 0.87003  0.29468  0.00264  Biso   1.000  C
  C5       1.0000 0.42465  0.12997  0.00264  Biso   1.000  C
  C6       1.0000 0.70532  0.57535  0.00264  Biso   1.000  C
  C7       1.0000 0.33333  0.66667  0.00378  Biso   1.000  C
  C8       1.0000 0.66667  0.33333  0.00378  Biso   1.000  C
